Version 4
SHEET 1 880 680
WIRE 432 0 320 0
WIRE 464 0 432 0
WIRE 320 32 320 0
WIRE 464 32 464 0
WIRE 432 64 432 0
WIRE -144 112 -176 112
WIRE 0 112 -64 112
WIRE 320 160 320 112
WIRE 320 160 240 160
WIRE 0 176 0 112
WIRE 32 176 0 176
WIRE -176 208 -176 112
WIRE -144 208 -176 208
WIRE 32 208 -64 208
WIRE 432 224 432 144
WIRE 432 224 240 224
WIRE -176 240 -176 208
WIRE 128 288 128 256
FLAG -176 240 0
FLAG 128 288 0
FLAG 464 32 0
FLAG 320 160 PSU
SYMBOL voltage -48 112 R90
WINDOW 123 0 0 Left 0
WINDOW 39 0 0 Left 0
SYMATTR InstName V1
SYMATTR Value 3.3V
SYMBOL res 416 48 R0
SYMATTR InstName R1
SYMATTR Value 1R
SYMBOL Misc\\battery 320 128 R180
WINDOW 0 24 104 Left 2
WINDOW 3 24 16 Left 2
SYMATTR InstName V2
SYMATTR Value {VPSU}
SYMBOL MosfetPowerControl 128 192 R0
SYMATTR InstName MOS_SW
SYMBOL voltage -48 208 R90
WINDOW 123 0 0 Left 0
WINDOW 39 0 0 Left 0
SYMATTR InstName V3
SYMATTR Value 0V
TEXT -160 344 Left 2 !.step param VPSU -12 12 1\n.op
