Version 4
SHEET 1 1104 840
WIRE -192 -416 -240 -416
WIRE -64 -416 -192 -416
WIRE 672 -416 592 -416
WIRE -240 -384 -240 -416
WIRE 592 -384 592 -416
WIRE -240 -288 -240 -320
WIRE -192 -288 -240 -288
WIRE -80 -288 -192 -288
WIRE 592 -288 592 -304
WIRE 672 -288 592 -288
WIRE 592 -272 592 -288
WIRE -240 -256 -240 -288
WIRE 672 -256 672 -288
WIRE -240 -160 -240 -192
WIRE -192 -160 -240 -160
WIRE -96 -160 -192 -160
WIRE 592 -160 592 -192
WIRE 672 -160 592 -160
WIRE -240 -112 -240 -160
WIRE 672 -112 592 -112
WIRE -64 -64 -64 -416
WIRE 96 -64 -64 -64
WIRE 592 -64 592 -112
WIRE -80 -32 -80 -288
WIRE 96 -32 -80 -32
WIRE -240 0 -240 -48
WIRE -192 0 -240 0
WIRE -112 0 -192 0
WIRE -96 0 -96 -160
WIRE 96 0 -96 0
WIRE -112 32 -112 0
WIRE 96 32 -112 32
WIRE 496 32 320 32
WIRE -240 48 -240 0
WIRE 592 48 592 16
WIRE 96 64 48 64
WIRE 96 96 48 96
WIRE 384 96 320 96
WIRE 48 128 48 96
WIRE 48 128 -112 128
WIRE 96 128 48 128
WIRE 384 128 320 128
WIRE 96 160 48 160
WIRE 496 160 496 32
WIRE -240 192 -240 112
WIRE 96 192 48 192
WIRE 96 224 48 224
WIRE -240 272 -240 192
WIRE -112 272 -112 128
WIRE -112 272 -240 272
WIRE 48 272 48 224
WIRE 48 272 -112 272
WIRE 208 272 208 256
WIRE 208 272 48 272
WIRE 496 272 496 240
WIRE 496 272 208 272
WIRE -240 288 -240 272
FLAG -240 288 0
FLAG -192 0 Cell1_v
FLAG -192 -160 Cell2_v
FLAG -192 -288 Cell3_v
FLAG -192 -416 Cell4_v
FLAG -240 192 BATT_NEG
FLAG 672 -256 0
FLAG 672 -416 Vs+
FLAG 672 -160 Vs-
FLAG 592 48 0
FLAG 672 -112 TRUE
FLAG 48 64 TRUE
FLAG 48 160 TRUE
FLAG 48 192 Vs+
FLAG 384 96 MUX_OUT
FLAG 384 128 SHUNT_OUT
SYMBOL MultiCellBatteryMeter 208 80 R0
SYMATTR InstName X1
SYMBOL Misc\\cell -240 -384 R0
WINDOW 123 0 0 Left 0
WINDOW 39 0 0 Left 0
SYMATTR InstName V1
SYMATTR Value 4V
SYMBOL Misc\\cell -240 -256 R0
WINDOW 123 0 0 Left 0
WINDOW 39 0 0 Left 0
SYMATTR InstName V2
SYMATTR Value 4V
SYMBOL Misc\\cell -240 -112 R0
WINDOW 123 0 0 Left 0
WINDOW 39 0 0 Left 0
SYMATTR InstName V3
SYMATTR Value 4V
SYMBOL Misc\\cell -240 48 R0
WINDOW 123 0 0 Left 0
WINDOW 39 0 0 Left 0
SYMATTR InstName V4
SYMATTR Value 4V
SYMBOL voltage 592 -400 M0
WINDOW 123 0 0 Left 0
WINDOW 39 0 0 Left 0
SYMATTR InstName V5
SYMATTR Value 12V
SYMBOL voltage 592 -176 M180
WINDOW 123 0 0 Left 0
WINDOW 39 0 0 Left 0
WINDOW 0 -50 16 Left 2
WINDOW 3 -76 89 Left 2
SYMATTR InstName V6
SYMATTR Value -12V
SYMBOL voltage 592 -80 R0
SYMATTR InstName V7
SYMATTR Value 3.3V
SYMBOL res 480 144 R0
SYMATTR InstName R1
SYMATTR Value {R_LOAD}
TEXT -16 376 Right 2 !.include nat_semi.lib
TEXT -256 408 Left 2 !.step param R_LOAD 0.3 160 10\n.op
TEXT 88 -416 Left 2 ;Discharging Simulation\nDischarging Current: 0-20A\nV_shunt: 0 - 1.65V\nSEL: 0x01\nCell1_V: 4V\nMUX_OUT: 3.3V
