version 2
1
9
.tran 100us 1ms{return}{return}{return}.kicad adjustpaths{return}.save all{return}.probe alli
3
2
I(R9)
 
1
V(/CHG)
 
1
V(/DIS)
 
