version 2
1
9
.tran 100m 1{return}.kicad adjustpaths{return}.save all{return}.probe alli
4
1
V(/C1_OUT)
 
1
V(/C2_OUT)
 
1
V(/C3_OUT)
 
1
V(/C4_OUT)
 
