Version 4
SHEET 1 1684 752
WIRE 928 -224 704 -224
WIRE 1088 -224 928 -224
WIRE 704 -192 704 -224
WIRE 928 -192 928 -224
WIRE 848 -80 624 -80
WIRE 928 -64 928 -112
WIRE 704 -48 704 -112
WIRE 704 -32 704 -48
WIRE 928 -32 928 -64
WIRE 384 -16 240 -16
WIRE 448 -16 384 -16
WIRE 560 -16 528 -16
WIRE 624 -16 624 -80
WIRE 624 -16 560 -16
WIRE 656 -16 624 -16
WIRE 848 -16 848 -80
WIRE 880 -16 848 -16
WIRE 384 32 384 -16
WIRE 704 80 704 64
WIRE 928 80 928 64
WIRE 384 160 384 112
WIRE 704 192 704 80
WIRE 928 192 928 80
WIRE 704 208 704 192
WIRE 928 208 928 192
WIRE 384 288 240 288
WIRE 448 288 384 288
WIRE 576 288 528 288
WIRE 624 288 576 288
WIRE 656 288 624 288
WIRE 880 288 848 288
WIRE 384 320 384 288
WIRE 704 320 704 304
WIRE 928 320 928 304
WIRE 624 352 624 288
WIRE 848 352 848 288
WIRE 848 352 624 352
WIRE 704 400 704 320
WIRE 928 400 928 320
WIRE 928 400 704 400
WIRE 1088 400 928 400
WIRE 384 464 384 400
FLAG 560 -16 G1
FLAG 576 288 G2
FLAG 704 192 D2
FLAG 704 80 D1
FLAG 928 80 D3
FLAG 928 192 D4
FLAG 704 -48 S1
FLAG 704 320 S2
FLAG 928 320 S4
FLAG 928 -64 S3
FLAG 1088 -224 BATT_N
IOPIN 1088 -224 BiDir
FLAG 1088 400 PSU_N
IOPIN 1088 400 BiDir
FLAG 240 -16 G1_IN
IOPIN 240 -16 In
FLAG 240 288 G2_IN
IOPIN 240 288 In
FLAG 384 160 GND
IOPIN 384 160 BiDir
FLAG 384 464 GND
IOPIN 384 464 BiDir
SYMBOL res 368 16 R0
SYMATTR InstName R1
SYMATTR Value 20K
SYMBOL res 368 304 R0
SYMATTR InstName R2
SYMATTR Value 20K
SYMBOL res 544 -32 R90
WINDOW 0 0 56 VBottom 2
WINDOW 3 32 56 VTop 2
SYMATTR InstName R3
SYMATTR Value 120
SYMBOL res 544 272 R90
WINDOW 0 0 56 VBottom 2
WINDOW 3 32 56 VTop 2
SYMATTR InstName R4
SYMATTR Value 120
SYMBOL res 720 -96 R180
WINDOW 0 36 76 Left 2
WINDOW 3 36 40 Left 2
SYMATTR InstName R5
SYMATTR Value 2.2
SYMBOL res 944 -96 R180
WINDOW 0 36 76 Left 2
WINDOW 3 36 40 Left 2
SYMATTR InstName R6
SYMATTR Value 2.2
SYMBOL nmos 656 64 M180
SYMATTR InstName M1
SYMATTR Value FDS6890A
SYMBOL nmos 880 64 M180
SYMATTR InstName M3
SYMATTR Value FDS6890A
SYMBOL nmos 880 208 R0
SYMATTR InstName M4
SYMATTR Value FDS6890A
SYMBOL nmos 656 208 R0
SYMATTR InstName M2
SYMATTR Value FDS6890A
TEXT 448 480 Left 2 !.include nat_semi.lib
